power-flow-agent/results/ieee14/2026-09-16/no-llm/rule_based__stress__from-stress_gpt-4o-mini/traces/10_case14-stress-009-s0.transcript.txt
==============================================================================
TRANSCRIPT  rule_based  |  none:rule_based  |  case14  |  case14-stress-009-s0  run 0
==============================================================================
date: 2026-09-16   seed: 0   difficulty: stress   tool variant: None

[system]   no LLM; deterministic parser (baselines/rule_based.py)

[user]
Load the 14-bus test case (case14), disconnect the line between bus 2 and bus 3, disconnect the transformer branch between bus 7 and bus 8, and finally rerun the power flow, then list every line whose loading is above 100%.

[planner output]
[
 {
  "tool": "load_case",
  "args": {
   "case_name": "case14"
  }
 },
 {
  "tool": "disconnect_line",
  "args": {
   "from_bus": 2,
   "to_bus": 3
  }
 },
 {
  "tool": "disconnect_line",
  "args": {
   "from_bus": 7,
   "to_bus": 8
  }
 },
 {
  "tool": "run_powerflow",
  "args": {},
  "derive": {
   "kind": "lines_above_loading",
   "threshold_percent": 100.0
  }
 }
]

--- round 1 ---
[tool load_case]   (gate: not applied)
{"case_name": "case14", "n_buses": 14, "n_generators": 5, "n_lines": 20, "n_loads": 11, "total_load_mw": 251.35259876316985, "total_gen_capacity_mw": 772.4000000000001}
[tool disconnect_line]   (gate: pass)
{"case_name": "case14", "converged": true, "bus_voltages": [{"bus_id": 1, "vm_pu": 1.06, "va_deg": 0.0, "is_violation": true, "violation_type": "overvoltage"}, {"bus_id": 2, "vm_pu": 1.045, "va_deg": -4.415344670715289, "is_violation": false, "violation_type": null}, {"bus_id": 3, "vm_pu": 1.01, "va_deg": -22.958834692446803, "is_violation": false, "violation_type": null}, {"bus_id": 4, "vm_pu": 1.0123340340547835, "va_deg": -13.168338434207495, "is_violation": false, "violation_type": null}, {"bus_id": 5, "vm_pu": 1.0145739979250086, "va_deg": -10.690316524250907, "is_violation": false, "violation_type": null}, {"bus_id": 6, "vm_pu": 1.0700000000000005, "va_deg": -16.458704793030343, "is_violation": true, "violation_type": "overvoltage"}, {"bus_id": 7, "vm_pu": 1.058657122421635, "va_deg": -16.063718878054104, "is_violation": true, "violation_type": "overvoltage"}, {"bus_id": 8, "vm_pu": 1.0899999999999999, "va_deg": -16.063718878054104, "is_violation": true, "violation_type": "overvoltage"}, {"bus_id": 9, "vm_pu": 1.0525264584961338, "va_deg": -17.561191114970136, "is_violation": true, "violation_type": "overvoltage"}, {"bus_id": 10, "vm_pu": 1.0482264334221165, "va_deg": -17.645186065246147, "is_violation": false, "violation_type": null}, {"bus_id": 11, "vm_pu": 1.0556399269015118, "va_deg": -17.173978247535437, "is_violation": true, "violation_type": "overvoltage"}, {"bus_id": 12, "vm_pu": 1.054939783485403, "va_deg": -17.34469130527961, "is_violation": true, "violation_type": "overvoltage"}, {"bus_id": 13, "vm_pu": 1.0497002255288237, "va_deg": -17.45039307157607, "is_violation": false, "violation_type": null}, {"bus_id": 14, "vm_pu": 1.0343551658026588, "va_deg": -18.456190869980293, "is_violation": false, "violation_type": null}], "line_flows": [{"line_id": 0, "from_bus": 1, "to_bus": 2, "p_from_mw": 139.75177435401446, "q_from_mvar": -16.311628550544732, "loading_percent": 1.3407708137965666, "is_violation": false}, {"line_id": 1, "from_bus": 1, "to_bus": 5, "p_from_mw": 91.34107019356446, "q_from_mvar": 5.066508519331222, "loading_percent": 0.8717503038205678, "is_violation": false}, {"line_id": 2, "from_bus": 2, "to_bus": 3, "p_from_mw": 0.0, "q_from_mvar": 0.0, "loading_percent": 0.0, "is_violation": false}, {"line_id": 3, "from_bus": 2, "to_bus": 4, "p_from_mw": 90.18969734709988, "q_from_mvar": -5.2324961135421955, "loading_percent": 0.8732430095493049, "is_violation": false}, {"line_id": 4, "from_bus": 2, "to_bus": 5, "p_from_mw": 66.67829063056794, "q_from_mvar": -1.7891688955172698, "loading_percent": 0.6447469002561558, "is_violation": false}, {"line_id": 5, "from_bus": 3, "to_bus": 4, "p_from_mw": -85.63976450350353, "q_from_mvar": 40.22930901398335, "loading_percent": 0.9508640274712337, "is_violation": false}, {"line_id": 6, "from_bus": 4, "to_bus": 5, "p_from_mw": -96.71881211687307, "q_from_mvar": 27.558347292572265, "loading_percent": 1.0034650517080328, "is_violation": false}, {"line_id": 7, "from_bus": 6, "to_bus": 11, "p_from_mw": 8.794056169038399, "q_from_mvar": 3.5699848787965496, "loading_percent": 0.08959746804577254, "is_violation": false}, {"line_id": 8, "from_bus": 6, "to_bus": 12, "p_from_mw": 8.02297720819866, "q_from_mvar": 2.4973000035186566, "loading_percent": 0.07932274655938461, "is_violation": false}, {"line_id": 9, "from_bus": 6, "to_bus": 13, "p_from_mw": 18.646550411130463, "q_from_mvar": 7.334228459912919, "loading_percent": 0.1891540106881545, "is_violation": false}, {"line_id": 10, "from_bus": 9, "to_bus": 10, "p_from_mw": 3.442990389486005, "q_from_mvar": 4.0613733345727105, "loading_percent": 0.051097560504837346, "is_violation": false}, {"line_id": 11, "from_bus": 9, "to_bus": 14, "p_from_mw": 7.8934367414284, "q_from_mvar": 3.411953251429044, "loading_percent": 0.08252666975648366, "is_violation": false}, {"line_id": 12, "from_bus": 10, "to_bus": 11, "p_from_mw": -5.461413187687255, "q_from_mvar": -1.6933977549957708, "loading_percent": 0.05509953216207966, "is_violation": false}, {"line_id": 13, "from_bus": 12, "to_bus": 13, "p_from_mw": 1.836318430143452, "q_from_mvar": 0.7366959672428747, "loading_percent": 0.018944849786679766, "is_violation": false}, {"line_id": 14, "from_bus": 13, "to_bus": 14, "p_from_mw": 6.262553384542896, "q_from_mvar": 1.6006034521037487, "loading_percent": 0.06220016853489392, "is_violation": false}, {"line_id": 100000, "from_bus": 4, "to_bus": 7, "p_from_mw": 26.4693260575479, "q_from_mvar": -10.988254802764695, "loading_percent": 0.28596282818733615, "is_violation": false}, {"line_id": 100001, "from_bus": 4, "to_bus": 9, "p_from_mw": 15.143147628112564, "q_from_mvar": -0.8854899467455778, "loading_percent": 0.1513555480751856, "is_violation": false}, {"line_id": 100002, "from_bus": 5, "to_bus": 6, "p_from_mw": 46.453081349825595, "q_from_mvar": 10.374064610188572, "loading_percent": 0.4738752949903792, "is_violation": false}, {"line_id": 100003, "from_bus": 7, "to_bus": 8, "p_from_mw": -1.3898775516651426e-14, "q_from_mvar": -18.836991533082788, "loading_percent": 0.1797301862127656, "is_violation": false}, {"line_id": 100004, "from_bus": 7, "to_bus": 9, "p_from_mw": 26.469326056102034, "q_from_mvar": 6.245628528417305, "loading_percent": 0.25948822194897303, "is_violation": false}], "total_generation_mw": 273.25224425990336, "total_load_mw": 251.35259876316985, "total_loss_mw": 21.899645549429817, "voltage_violations": [{"bus_id": 1, "vm_pu": 1.06, "va_deg": 0.0, "is_violation": true, "violation_type": "overvoltage"}, {"bus_id": 6, "vm_pu": 1.0700000000000005, "va_deg": -16.458704793030343, "is_violation": true, "violation_type": "overvoltage"}, {"bus_id": 7, "vm_pu": 1.058657122421635, "va_deg": -16.063718878054104, "is_violation": true, "violation_type": "overvoltage"}, {"bus_id": 8, "vm_pu": 1.0899999999999999, "va_deg": -16.063718878054104, "is_violation": true, "violation_type": "overvoltage"}, {"bus_id": 9, "vm_pu": 1.0525264584961338, "va_deg": -17.561191114970136, "is_violation": true, "violation_type": "overvoltage"}, {"bus_id": 11, "vm_pu": 1.0556399269015118, "va_deg": -17.173978247535437, "is_violation": true, "violation_type": "overvoltage"}, {"bus_id": 12, "vm_pu": 1.054939783485403, "va_deg": -17.34469130527961, "is_violation": true, "violation_type": "overvoltage"}], "thermal_violations": [], "summary_text": "", "solver_backend": "pandapower", "llm_prompt": null, "llm_response": null}
[tool disconnect_line]   (gate: pass)
{"case_name": "case14", "converged": true, "bus_voltages": [{"bus_id": 1, "vm_pu": 1.06, "va_deg": 0.0, "is_violation": true, "violation_type": "overvoltage"}, {"bus_id": 2, "vm_pu": 1.045, "va_deg": -4.425773773224999, "is_violation": false, "violation_type": null}, {"bus_id": 3, "vm_pu": 1.0100000000000002, "va_deg": -23.12547651992136, "is_violation": false, "violation_type": null}, {"bus_id": 4, "vm_pu": 1.0060546024929407, "va_deg": -13.118270018519924, "is_violation": false, "violation_type": null}, {"bus_id": 5, "vm_pu": 1.0105618118561082, "va_deg": -10.6840270019324, "is_violation": false, "violation_type": null}, {"bus_id": 6, "vm_pu": 1.07, "va_deg": -16.6530367832069, "is_violation": true, "violation_type": "overvoltage"}, {"bus_id": 7, "vm_pu": 1.0310214505847832, "va_deg": -16.003928661989658, "is_violation": false, "violation_type": null}, {"bus_id": 8, "vm_pu": NaN, "va_deg": NaN, "is_violation": false, "violation_type": null}, {"bus_id": 9, "vm_pu": 1.033295592705306, "va_deg": -17.514726590092454, "is_violation": false, "violation_type": null}, {"bus_id": 10, "vm_pu": 1.0322838901957705, "va_deg": -17.637120266202515, "is_violation": false, "violation_type": null}, {"bus_id": 11, "vm_pu": 1.0474900246826568, "va_deg": -17.254419806196285, "is_violation": false, "violation_type": null}, {"bus_id": 12, "vm_pu": 1.053484485002207, "va_deg": -17.536529399138153, "is_violation": true, "violation_type": "overvoltage"}, {"bus_id": 13, "vm_pu": 1.0468691492910793, "va_deg": -17.607811793925848, "is_violation": false, "violation_type": null}, {"bus_id": 14, "vm_pu": 1.0220703461029617, "va_deg": -18.517308131196447, "is_violation": false, "violation_type": null}], "line_flows": [{"line_id": 0, "from_bus": 1, "to_bus": 2, "p_from_mw": 140.06637131284202, "q_from_mvar": -16.38840429519067, "loading_percent": 1.3438333451515834, "is_violation": false}, {"line_id": 1, "from_bus": 1, "to_bus": 5, "p_from_mw": 91.38452602567065, "q_from_mvar": 6.919906460812847, "loading_percent": 0.8740315380564859, "is_violation": false}, {"line_id": 2, "from_bus": 2, "to_bus": 3, "p_from_mw": 0.0, "q_from_mvar": 0.0, "loading_percent": 0.0, "is_violation": false}, {"line_id": 3, "from_bus": 2, "to_bus": 4, "p_from_mw": 90.1826215898174, "q_from_mvar": -1.6473400960775235, "loading_percent": 0.8718541015860535, "is_violation": false}, {"line_id": 4, "from_bus": 2, "to_bus": 5, "p_from_mw": 66.98442534109024, "q_from_mvar": 0.4880541582126058, "loading_percent": 0.64749121182467, "is_violation": false}, {"line_id": 5, "from_bus": 3, "to_bus": 4, "p_from_mw": -85.63976445137477, "q_from_mvar": 44.269857632899075, "loading_percent": 0.9691596697037101, "is_violation": false}, {"line_id": 6, "from_bus": 4, "to_bus": 5, "p_from_mw": -95.65329603189274, "q_from_mvar": 21.735083612815323, "loading_percent": 0.9848615500765607, "is_violation": false}, {"line_id": 7, "from_bus": 6, "to_bus": 11, "p_from_mw": 9.537148406191335, "q_from_mvar": 7.586238627457751, "loading_percent": 0.11504195901514168, "is_violation": false}, {"line_id": 8, "from_bus": 6, "to_bus": 12, "p_from_mw": 8.237224174513196, "q_from_mvar": 3.002712089256872, "loading_percent": 0.08276642934784796, "is_violation": false}, {"line_id": 9, "from_bus": 6, "to_bus": 13, "p_from_mw": 19.109007201170225, "q_from_mvar": 9.415002991763288, "loading_percent": 0.20109976765313328, "is_violation": false}, {"line_id": 10, "from_bus": 9, "to_bus": 10, "p_from_mw": 2.7706784144890784, "q_from_mvar": 0.19700430319101575, "loading_percent": 0.027153224468048617, "is_violation": false}, {"line_id": 11, "from_bus": 9, "to_bus": 14, "p_from_mw": 7.272132737730912, "q_from_mvar": 0.9309382024447683, "loading_percent": 0.07166906308065696, "is_violation": false}, {"line_id": 12, "from_bus": 10, "to_bus": 11, "p_from_mw": -6.127883647066183, "q_from_mvar": -5.542249397443504, "loading_percent": 0.0808486200748613, "is_violation": false}, {"line_id": 13, "from_bus": 12, "to_bus": 13, "p_from_mw": 2.0438412872444793, "q_from_mvar": 1.228113305628434, "loading_percent": 0.02286245606243973, "is_violation": false}, {"line_id": 14, "from_bus": 13, "to_bus": 14, "p_from_mw": 6.898762076357949, "q_from_mvar": 4.110065006719084, "loading_percent": 0.07748249850807212, "is_violation": false}, {"line_id": 100000, "from_bus": 4, "to_bus": 7, "p_from_mw": 25.532511334552165, "q_from_mvar": -0.5058902996146767, "loading_percent": 0.2564023592745864, "is_violation": false}, {"line_id": 100001, "from_bus": 4, "to_bus": 9, "p_from_mw": 14.786346377693043, "q_from_mvar": 1.490573671715926, "loading_percent": 0.14921059848349824, "is_violation": false}, {"line_id": 100002, "from_bus": 5, "to_bus": 6, "p_from_mw": 47.872877335419496, "q_from_mvar": 8.645705737554415, "loading_percent": 0.4862512589646353, "is_violation": false}, {"line_id": 100003, "from_bus": 7, "to_bus": 8, "p_from_mw": 0.0, "q_from_mvar": 0.0, "loading_percent": NaN, "is_violation": false}, {"line_id": 100004, "from_bus": 7, "to_bus": 9, "p_from_mw": 25.53251133165692, "q_from_mvar": -1.7946967576936295, "loading_percent": 0.2507615073434809, "is_violation": false}], "total_generation_mw": 273.6102970508371, "total_load_mw": 251.35259876316985, "total_loss_mw": 22.257698410223867, "voltage_violations": [{"bus_id": 1, "vm_pu": 1.06, "va_deg": 0.0, "is_violation": true, "violation_type": "overvoltage"}, {"bus_id": 6, "vm_pu": 1.07, "va_deg": -16.6530367832069, "is_violation": true, "violation_type": "overvoltage"}, {"bus_id": 12, "vm_pu": 1.053484485002207, "va_deg": -17.536529399138153, "is_violation": true, "violation_type": "overvoltage"}], "thermal_violations": [], "summary_text": "", "solver_backend": "pandapower", "llm_prompt": null, "llm_response": null}
[tool run_powerflow]   (gate: pass)
{"case_name": "case14", "converged": true, "bus_voltages": [{"bus_id": 1, "vm_pu": 1.06, "va_deg": 0.0, "is_violation": true, "violation_type": "overvoltage"}, {"bus_id": 2, "vm_pu": 1.045, "va_deg": -4.425773773224999, "is_violation": false, "violation_type": null}, {"bus_id": 3, "vm_pu": 1.0100000000000002, "va_deg": -23.12547651992136, "is_violation": false, "violation_type": null}, {"bus_id": 4, "vm_pu": 1.0060546024929407, "va_deg": -13.118270018519924, "is_violation": false, "violation_type": null}, {"bus_id": 5, "vm_pu": 1.0105618118561082, "va_deg": -10.6840270019324, "is_violation": false, "violation_type": null}, {"bus_id": 6, "vm_pu": 1.07, "va_deg": -16.6530367832069, "is_violation": true, "violation_type": "overvoltage"}, {"bus_id": 7, "vm_pu": 1.0310214505847832, "va_deg": -16.003928661989658, "is_violation": false, "violation_type": null}, {"bus_id": 8, "vm_pu": NaN, "va_deg": NaN, "is_violation": false, "violation_type": null}, {"bus_id": 9, "vm_pu": 1.033295592705306, "va_deg": -17.514726590092454, "is_violation": false, "violation_type": null}, {"bus_id": 10, "vm_pu": 1.0322838901957705, "va_deg": -17.637120266202515, "is_violation": false, "violation_type": null}, {"bus_id": 11, "vm_pu": 1.0474900246826568, "va_deg": -17.254419806196285, "is_violation": false, "violation_type": null}, {"bus_id": 12, "vm_pu": 1.053484485002207, "va_deg": -17.536529399138153, "is_violation": true, "violation_type": "overvoltage"}, {"bus_id": 13, "vm_pu": 1.0468691492910793, "va_deg": -17.607811793925848, "is_violation": false, "violation_type": null}, {"bus_id": 14, "vm_pu": 1.0220703461029617, "va_deg": -18.517308131196447, "is_violation": false, "violation_type": null}], "line_flows": [{"line_id": 0, "from_bus": 1, "to_bus": 2, "p_from_mw": 140.06637131284202, "q_from_mvar": -16.38840429519067, "loading_percent": 1.3438333451515834, "is_violation": false}, {"line_id": 1, "from_bus": 1, "to_bus": 5, "p_from_mw": 91.38452602567065, "q_from_mvar": 6.919906460812847, "loading_percent": 0.8740315380564859, "is_violation": false}, {"line_id": 2, "from_bus": 2, "to_bus": 3, "p_from_mw": 0.0, "q_from_mvar": 0.0, "loading_percent": 0.0, "is_violation": false}, {"line_id": 3, "from_bus": 2, "to_bus": 4, "p_from_mw": 90.1826215898174, "q_from_mvar": -1.6473400960775235, "loading_percent": 0.8718541015860535, "is_violation": false}, {"line_id": 4, "from_bus": 2, "to_bus": 5, "p_from_mw": 66.98442534109024, "q_from_mvar": 0.4880541582126058, "loading_percent": 0.64749121182467, "is_violation": false}, {"line_id": 5, "from_bus": 3, "to_bus": 4, "p_from_mw": -85.63976445137477, "q_from_mvar": 44.269857632899075, "loading_percent": 0.9691596697037101, "is_violation": false}, {"line_id": 6, "from_bus": 4, "to_bus": 5, "p_from_mw": -95.65329603189274, "q_from_mvar": 21.735083612815323, "loading_percent": 0.9848615500765607, "is_violation": false}, {"line_id": 7, "from_bus": 6, "to_bus": 11, "p_from_mw": 9.537148406191335, "q_from_mvar": 7.586238627457751, "loading_percent": 0.11504195901514168, "is_violation": false}, {"line_id": 8, "from_bus": 6, "to_bus": 12, "p_from_mw": 8.237224174513196, "q_from_mvar": 3.002712089256872, "loading_percent": 0.08276642934784796, "is_violation": false}, {"line_id": 9, "from_bus": 6, "to_bus": 13, "p_from_mw": 19.109007201170225, "q_from_mvar": 9.415002991763288, "loading_percent": 0.20109976765313328, "is_violation": false}, {"line_id": 10, "from_bus": 9, "to_bus": 10, "p_from_mw": 2.7706784144890784, "q_from_mvar": 0.19700430319101575, "loading_percent": 0.027153224468048617, "is_violation": false}, {"line_id": 11, "from_bus": 9, "to_bus": 14, "p_from_mw": 7.272132737730912, "q_from_mvar": 0.9309382024447683, "loading_percent": 0.07166906308065696, "is_violation": false}, {"line_id": 12, "from_bus": 10, "to_bus": 11, "p_from_mw": -6.127883647066183, "q_from_mvar": -5.542249397443504, "loading_percent": 0.0808486200748613, "is_violation": false}, {"line_id": 13, "from_bus": 12, "to_bus": 13, "p_from_mw": 2.0438412872444793, "q_from_mvar": 1.228113305628434, "loading_percent": 0.02286245606243973, "is_violation": false}, {"line_id": 14, "from_bus": 13, "to_bus": 14, "p_from_mw": 6.898762076357949, "q_from_mvar": 4.110065006719084, "loading_percent": 0.07748249850807212, "is_violation": false}, {"line_id": 100000, "from_bus": 4, "to_bus": 7, "p_from_mw": 25.532511334552165, "q_from_mvar": -0.5058902996146767, "loading_percent": 0.2564023592745864, "is_violation": false}, {"line_id": 100001, "from_bus": 4, "to_bus": 9, "p_from_mw": 14.786346377693043, "q_from_mvar": 1.490573671715926, "loading_percent": 0.14921059848349824, "is_violation": false}, {"line_id": 100002, "from_bus": 5, "to_bus": 6, "p_from_mw": 47.872877335419496, "q_from_mvar": 8.645705737554415, "loading_percent": 0.4862512589646353, "is_violation": false}, {"line_id": 100003, "from_bus": 7, "to_bus": 8, "p_from_mw": 0.0, "q_from_mvar": 0.0, "loading_percent": NaN, "is_violation": false}, {"line_id": 100004, "from_bus": 7, "to_bus": 9, "p_from_mw": 25.53251133165692, "q_from_mvar": -1.7946967576936295, "loading_percent": 0.2507615073434809, "is_violation": false}], "total_generation_mw": 273.6102970508371, "total_load_mw": 251.35259876316985, "total_loss_mw": 22.257698410223867, "voltage_violations": [{"bus_id": 1, "vm_pu": 1.06, "va_deg": 0.0, "is_violation": true, "violation_type": "overvoltage"}, {"bus_id": 6, "vm_pu": 1.07, "va_deg": -16.6530367832069, "is_violation": true, "violation_type": "overvoltage"}, {"bus_id": 12, "vm_pu": 1.053484485002207, "va_deg": -17.536529399138153, "is_violation": true, "violation_type": "overvoltage"}], "thermal_violations": [], "summary_text": "", "solver_backend": "pandapower", "llm_prompt": null, "llm_response": null}

[final answer]
Loaded case14 (14 buses, 20 branches).
disconnect_line: converged; load 251.353 MW, generation 273.252 MW, losses 21.900 MW; 7 voltage and 0 thermal violation(s).
disconnect_line: converged; load 251.353 MW, generation 273.610 MW, losses 22.258 MW; 3 voltage and 0 thermal violation(s).
run_powerflow: converged; load 251.353 MW, generation 273.610 MW, losses 22.258 MW; 3 voltage and 0 thermal violation(s).
No lines above 100% loading.
